Circuit: * C:\Users\Mark\Documents\H-Bridge\H-Bridge.asc

Direct Newton iteration for .op point succeeded.

Date: Tue Jun 07 22:24:14 2016
Total elapsed time: 0.720 seconds.

tnom = 27
temp = 27
method = modified trap
totiter = 15540
traniter = 15523
tranpoints = 5341
accept = 4414
rejected = 927
matrix size = 45
fillins = 44
solver = Normal
Matrix Compiler1: 5.19 KB object code size  4.6/3.3/[1.7]
Matrix Compiler2: 4.54 KB object code size  2.2/3.9/[1.6]


